<?xml version="1.0" encoding="UTF-8"?>

<!-- generated on 2022-04-22 13:59:26 by Eclipse SUMO netedit Version 1.12.0
<configuration xmlns:xsi="http://www.w3.org/2001/XMLSchema-instance" xsi:noNamespaceSchemaLocation="http://sumo.dlr.de/xsd/netconvertConfiguration.xsd">

    <input>
        <sumo-net-file value="E:\sumo\学习文件\实验\实验3\35m.net.xml"/>
    </input>

    <output>
        <output-file value="E:\sumo\学习文件\实验\实验3\35m.net.xml"/>
    </output>

    <processing>
        <geometry.min-radius.fix.railways value="false"/>
        <geometry.max-grade.fix value="false"/>
        <offset.disable-normalization value="true"/>
        <lefthand value="false"/>
    </processing>

    <junctions>
        <no-internal-links value="true"/>
        <no-turnarounds value="true"/>
        <junctions.corner-detail value="5"/>
        <junctions.limit-turn-speed value="5.5"/>
        <rectangular-lane-cut value="false"/>
    </junctions>

    <pedestrian>
        <walkingareas value="false"/>
    </pedestrian>

    <report>
        <aggregate-warnings value="5"/>
    </report>

</configuration>
-->

<net version="1.9" junctionCornerDetail="5" limitTurnSpeed="5.50" xmlns:xsi="http://www.w3.org/2001/XMLSchema-instance" xsi:noNamespaceSchemaLocation="http://sumo.dlr.de/xsd/net_file.xsd">

    <location netOffset="0.00,0.00" convBoundary="-5.01,-2750.00,3000.00,44.98" origBoundary="-10000000000.00,-10000000000.00,10000000000.00,10000000000.00" projParameter="!"/>

    <edge id="-E1" from="J8" to="J1" priority="-1">
        <lane id="-E1_0" index="0" speed="13.89" length="78.50" shape="604.87,-64.29 533.73,-63.90"/>
    </edge>
    <edge id="-E2" from="J9" to="J1" priority="-1">
        <lane id="-E2_0" index="0" speed="13.89" length="44.60" shape="529.89,-109.95 528.28,-72.74"/>
    </edge>
    <edge id="-E8" from="J10" to="J1" priority="-1">
        <lane id="-E8_0" index="0" speed="13.89" length="33.25" shape="525.29,-32.18 524.88,-58.20"/>
    </edge>
    <edge id="-E9" from="J1" to="J0" priority="-1">
        <lane id="-E9_0" index="0" speed="13.89" length="103.55" shape="519.21,-63.86 422.81,-63.86"/>
    </edge>
    <edge id="E0" from="J11" to="J12" priority="-1">
        <lane id="E0_0" index="0" speed="13.89" length="46.98" shape="216.53,42.39 259.51,42.60"/>
    </edge>
    <edge id="E1" from="J1" to="J8" priority="-1">
        <lane id="E1_0" index="0" speed="13.89" length="78.50" shape="533.71,-67.10 604.85,-67.49"/>
    </edge>
    <edge id="E10" from="J12" to="J13" priority="-1">
        <lane id="E10_0" index="0" speed="13.89" length="69.64" shape="267.54,39.45 328.29,39.98"/>
        <lane id="E10_1" index="1" speed="13.89" length="69.64" shape="267.51,42.65 328.27,43.18"/>
    </edge>
    <edge id="E11" from="J13" to="J14" priority="-1">
        <lane id="E11_0" index="0" speed="13.89" length="28.72" shape="331.63,43.19 355.58,43.38"/>
    </edge>
    <edge id="E12" from="J13" to="J15" priority="-1">
        <lane id="E12_0" index="0" speed="13.89" length="26.86" shape="331.48,39.82 356.26,37.00"/>
    </edge>
    <edge id="E13" from="J19" to="J20" priority="-1">
        <lane id="E13_0" index="0" speed="16.00" length="33.31" width="3.50" shape="268.09,-5.25 300.23,-5.25"/>
    </edge>
    <edge id="E14" from="J20" to="J21" priority="-1">
        <lane id="E14_0" index="0" speed="16.00" length="2700.94" width="3.50" shape="300.23,-5.25 3000.00,-5.25"/>
    </edge>
    <edge id="E15" from="J4" to="J6" priority="-1">
        <lane id="E15_0" index="0" speed="13.89" length="24.68" shape="242.52,-22.61 262.94,-23.10"/>
        <lane id="E15_1" index="1" speed="13.89" length="24.68" shape="242.60,-19.41 263.02,-19.90"/>
    </edge>
    <edge id="E16" from="J6" to="J22" priority="-1">
        <lane id="E16_0" index="0" speed="13.89" length="31.62" shape="266.70,-19.80 294.45,-19.62"/>
    </edge>
    <edge id="E17" from="J6" to="J23" priority="-1">
        <lane id="E17_0" index="0" speed="13.89" length="2.51" shape="266.26,-24.06 266.42,-24.18"/>
    </edge>
    <edge id="E2" from="J1" to="J9" priority="-1">
        <lane id="E2_0" index="0" speed="13.89" length="44.60" shape="525.08,-72.88 526.69,-110.09"/>
    </edge>
    <edge id="E3" from="J2" to="J3" priority="-1" length="240.01">
        <lane id="E3_0" index="0" speed="16.00" length="240.01" width="3.50" shape="-5.01,-1.75 246.00,-1.75"/>
    </edge>
    <edge id="E4" from="J3" to="J16" priority="-1" length="15.00">
        <lane id="E4_0" index="0" speed="16.00" length="15.00" width="3.50" shape="254.00,-5.25 264.67,-5.25"/>
        <lane id="E4_1" index="1" speed="16.00" length="15.00" width="3.50" shape="254.00,-1.75 264.67,-1.75"/>
    </edge>
    <edge id="E5" from="J16" to="J17" priority="-1" length="32.14">
        <lane id="E5_0" index="0" speed="16.00" length="32.14" width="3.50" shape="269.91,-1.75 300.00,-1.75"/>
    </edge>
    <edge id="E6" from="J17" to="J18" priority="-1">
        <lane id="E6_0" index="0" speed="16.00" length="2700.00" width="3.50" shape="300.00,-1.75 3000.00,-1.75"/>
    </edge>
    <edge id="E7" from="J16" to="J19" priority="-1">
        <lane id="E7_0" index="0" speed="16.00" length="8.26" width="3.50" shape="267.82,-5.86 267.96,-6.01"/>
    </edge>
    <edge id="E8" from="J1" to="J10" priority="-1">
        <lane id="E8_0" index="0" speed="13.89" length="33.25" shape="528.08,-58.25 528.49,-32.24"/>
    </edge>
    <edge id="E9" from="J0" to="J1" priority="-1">
        <lane id="E9_0" index="0" speed="13.89" length="103.55" shape="422.81,-67.06 519.21,-67.06"/>
    </edge>

    <tlLogic id="J12" type="static" programID="0" offset="0">
        <phase duration="20" state="GG"/>
        <phase duration="76" state="rG"/>
        <phase duration="24" state="GG"/>
    </tlLogic>
    <tlLogic id="J17" type="static" programID="0" offset="0">
        <phase duration="27" state="G"/>
        <phase duration="3"  state="y"/>
        <phase duration="90" state="r"/>
    </tlLogic>
    <tlLogic id="J20" type="static" programID="0" offset="0">
        <phase duration="27" state="G"/>
        <phase duration="3"  state="y"/>
        <phase duration="90" state="r"/>
    </tlLogic>

    <junction id="J0" type="dead_end" x="422.81" y="-65.46" incLanes="-E9_0" intLanes="" shape="422.81,-65.46 422.81,-62.26 422.81,-65.46"/>
    <junction id="J1" type="priority" x="526.36" y="-65.46" incLanes="-E8_0 -E1_0 -E2_0 E9_0" intLanes="" shape="523.28,-58.18 529.67,-58.28 530.10,-60.50 530.66,-61.28 531.45,-61.84 532.48,-62.18 533.74,-62.30 533.70,-68.70 531.50,-69.13 530.75,-69.68 530.22,-70.46 529.93,-71.45 529.88,-72.67 523.48,-72.95 522.92,-70.57 522.32,-69.73 521.50,-69.14 520.46,-68.78 519.21,-68.66 519.21,-62.26 521.44,-61.81 522.23,-61.24 522.80,-60.45 523.14,-59.42">
        <request index="0"  response="000000010000" foes="000100010000"/>
        <request index="1"  response="111000110000" foes="111100110000"/>
        <request index="2"  response="110011110000" foes="110011110000"/>
        <request index="3"  response="000000000000" foes="100010000000"/>
        <request index="4"  response="000000000000" foes="100110000111"/>
        <request index="5"  response="011000000000" foes="011110000110"/>
        <request index="6"  response="010000000000" foes="010000000100"/>
        <request index="7"  response="110000111000" foes="110000111100"/>
        <request index="8"  response="110000110011" foes="110000110011"/>
        <request index="9"  response="000000000000" foes="000000100010"/>
        <request index="10" response="000000000000" foes="000111100110"/>
        <request index="11" response="000000011000" foes="000110011110"/>
    </junction>
    <junction id="J10" type="dead_end" x="526.89" y="-32.21" incLanes="E8_0" intLanes="" shape="526.89,-32.21 530.09,-32.26 526.89,-32.21"/>
    <junction id="J11" type="dead_end" x="216.52" y="43.99" incLanes="" intLanes="" shape="216.52,43.99 216.54,40.79"/>
    <junction id="J12" type="traffic_light" x="263.50" y="44.22" incLanes="E0_0" intLanes="" shape="267.50,44.25 267.55,37.85 264.51,38.66 262.56,40.19 261.31,40.77 259.52,41.00 259.51,44.20">
        <request index="0" response="00" foes="00"/>
        <request index="1" response="00" foes="00"/>
    </junction>
    <junction id="J13" type="priority" x="303.81" y="44.57" incLanes="E10_0 E10_1" intLanes="" shape="331.61,44.79 331.64,41.59 331.66,41.41 331.30,38.23 330.19,38.34 329.81,38.37 329.42,38.39 328.95,38.39 328.31,38.38 328.25,44.78">
        <request index="0" response="00" foes="00"/>
        <request index="1" response="00" foes="00"/>
    </junction>
    <junction id="J14" type="dead_end" x="355.57" y="44.98" incLanes="E11_0" intLanes="" shape="355.60,41.78 355.57,44.98"/>
    <junction id="J15" type="dead_end" x="356.44" y="38.59" incLanes="E12_0" intLanes="" shape="356.08,35.41 356.44,38.59"/>
    <junction id="J16" type="priority" x="265.05" y="0.00" incLanes="E4_0 E4_1" intLanes="" shape="269.91,0.00 269.91,-3.50 270.33,-6.08 267.69,-8.38 264.67,-7.00 264.67,0.00">
        <request index="0" response="00" foes="00"/>
        <request index="1" response="00" foes="00"/>
    </junction>
    <junction id="J17" type="traffic_light" x="300.00" y="0.00" incLanes="E5_0" intLanes="" shape="300.00,0.00 300.00,-3.50 300.00,0.00">
        <request index="0" response="0" foes="0"/>
    </junction>
    <junction id="J18" type="dead_end" x="3000.00" y="0.00" incLanes="E6_0" intLanes="" shape="3000.00,-3.50 3000.00,0.00"/>
    <junction id="J19" type="priority" x="268.09" y="-3.50" incLanes="E7_0" intLanes="" shape="268.09,-3.50 268.09,-7.00 267.09,-6.87 266.63,-6.70 266.21,-6.46 265.81,-6.16 265.45,-5.80">
        <request index="0" response="0" foes="0"/>
    </junction>
    <junction id="J2" type="dead_end" x="-5.01" y="0.00" incLanes="" intLanes="" shape="-5.01,0.00 -5.01,-3.50"/>
    <junction id="J20" type="traffic_light" x="300.00" y="-3.50" incLanes="E13_0" intLanes="" shape="300.23,-3.50 300.23,-7.00 300.23,-3.50" customShape="1">
        <request index="0" response="0" foes="0"/>
    </junction>
    <junction id="J21" type="dead_end" x="3000.00" y="-3.50" incLanes="E14_0" intLanes="" shape="3000.00,-7.00 3000.00,-3.50"/>
    <junction id="J22" type="dead_end" x="294.44" y="-18.02" incLanes="E16_0" intLanes="" shape="294.46,-21.22 294.44,-18.02"/>
    <junction id="J23" type="dead_end" x="267.04" y="-22.66" incLanes="E17_0" intLanes="" shape="265.23,-25.30 267.04,-22.66"/>
    <junction id="J3" type="priority" x="250.00" y="0.00" incLanes="E3_0" intLanes="" shape="254.00,0.00 254.00,-7.00 250.96,-6.09 249.04,-4.41 247.81,-3.76 246.00,-3.50 246.00,0.00">
        <request index="0" response="00" foes="00"/>
        <request index="1" response="00" foes="00"/>
    </junction>
    <junction id="J4" type="dead_end" x="242.64" y="-17.81" incLanes="" intLanes="" shape="242.64,-17.81 242.49,-24.21"/>
    <junction id="J5" type="dead_end" x="3000.00" y="0.00" incLanes="" intLanes="" shape="3000.00,0.00"/>
    <junction id="J6" type="priority" x="260.58" y="-18.24" incLanes="E15_0 E15_1" intLanes="" shape="266.69,-18.20 266.71,-21.40 267.45,-22.94 265.64,-25.58 262.90,-24.70 263.06,-18.30">
        <request index="0" response="00" foes="00"/>
        <request index="1" response="00" foes="00"/>
    </junction>
    <junction id="J7" type="dead_end" x="250.00" y="-2750.00" incLanes="" intLanes="" shape="250.00,-2750.00"/>
    <junction id="J8" type="dead_end" x="604.86" y="-65.89" incLanes="E1_0" intLanes="" shape="604.86,-65.89 604.84,-69.09 604.86,-65.89"/>
    <junction id="J9" type="dead_end" x="528.29" y="-110.02" incLanes="E2_0" intLanes="" shape="528.29,-110.02 525.09,-110.16 528.29,-110.02"/>

    <connection from="-E1" to="E8" fromLane="0" toLane="0" dir="r" state="M"/>
    <connection from="-E1" to="-E9" fromLane="0" toLane="0" dir="s" state="M"/>
    <connection from="-E1" to="E2" fromLane="0" toLane="0" dir="l" state="m"/>
    <connection from="-E2" to="E1" fromLane="0" toLane="0" dir="r" state="m"/>
    <connection from="-E2" to="E8" fromLane="0" toLane="0" dir="s" state="m"/>
    <connection from="-E2" to="-E9" fromLane="0" toLane="0" dir="l" state="m"/>
    <connection from="-E8" to="-E9" fromLane="0" toLane="0" dir="r" state="m"/>
    <connection from="-E8" to="E2" fromLane="0" toLane="0" dir="s" state="m"/>
    <connection from="-E8" to="E1" fromLane="0" toLane="0" dir="l" state="m"/>
    <connection from="E0" to="E10" fromLane="0" toLane="0" tl="J12" linkIndex="0" dir="s" state="O"/>
    <connection from="E0" to="E10" fromLane="0" toLane="1" tl="J12" linkIndex="1" dir="s" state="O"/>
    <connection from="E10" to="E12" fromLane="0" toLane="0" dir="R" state="M"/>
    <connection from="E10" to="E11" fromLane="1" toLane="0" dir="s" state="M"/>
    <connection from="E13" to="E14" fromLane="0" toLane="0" tl="J20" linkIndex="0" dir="s" state="O"/>
    <connection from="E15" to="E17" fromLane="0" toLane="0" dir="R" state="M"/>
    <connection from="E15" to="E16" fromLane="1" toLane="0" dir="s" state="M"/>
    <connection from="E3" to="E4" fromLane="0" toLane="0" dir="s" state="M"/>
    <connection from="E3" to="E4" fromLane="0" toLane="1" dir="s" state="M"/>
    <connection from="E4" to="E7" fromLane="0" toLane="0" dir="r" state="M"/>
    <connection from="E4" to="E5" fromLane="1" toLane="0" dir="s" state="M"/>
    <connection from="E5" to="E6" fromLane="0" toLane="0" tl="J17" linkIndex="0" dir="s" state="O"/>
    <connection from="E7" to="E13" fromLane="0" toLane="0" dir="l" state="M"/>
    <connection from="E9" to="E2" fromLane="0" toLane="0" dir="r" state="M"/>
    <connection from="E9" to="E1" fromLane="0" toLane="0" dir="s" state="M"/>
    <connection from="E9" to="E8" fromLane="0" toLane="0" dir="l" state="m"/>

</net>
