<?xml version="1.0" encoding="UTF-8"?>

<configuration xmlns:xsi="http://www.w3.org/2001/XMLSchema-instance" xsi:noNamespaceSchemaLocation="http://sumo.dlr.de/xsd/sumoConfiguration.xsd">

    <input>
        <net-file value="shiyan3.net.xml"/>
        <route-files value="shiyan3.rou.xml"/>
    </input>

    <time>
        <begin value="0"/>
        <end value="240"/>
        <step-length value="1"/>
    </time>

    <random_number>
        <seed value="5"/>
    </random_number>

    <gui_only>
         <start value ="t"/>
         <quit-on-end value="t"/>
    </gui_only>

</configuration>
